Version 4.1
SHEET 1 880 680
WIRE 80 112 -32 112
WIRE 240 112 160 112
WIRE -32 128 -32 112
WIRE 240 128 240 112
WIRE -32 272 -32 208
WIRE 240 272 240 192
FLAG -32 272 0
FLAG 240 272 0
SYMBOL res 176 96 R90
WINDOW 0 0 56 VBottom 2
WINDOW 3 32 56 VTop 2
SYMATTR InstName R1
SYMATTR Value 1k
SYMATTR SpiceLine tol=1 pwr=0.1
SYMBOL cap 224 128 R0
SYMATTR InstName C1
SYMATTR Value 1”
SYMATTR SpiceLine V=4 Irms=0 Rser=0 Lser=0 mfg="Murata" pn="GRM032R60G105ME05" type="X5R"
SYMBOL voltage -32 112 R0
WINDOW 3 -350 56 Left 2
WINDOW 123 -350 84 Left 2
WINDOW 39 0 0 Left 0
SYMATTR InstName V1
SYMATTR Value SINE(0 5 100000 0 0 0 10)
SYMATTR Value2 AC 5
TEXT -376 296 Left 2 !.ac lin 1000 10 1e7
